# Neighbour list.
  neighbor        5.0 bin
  neigh_modify    check yes

  # Force field definition.
  boundary p p p
  units real
  atom_style hybrid molecular ellipsoid
  # gamma upsilon mu lj_cutoff coul_cutoff
  pair_style molc/long 1 1 -3 14.0 14.0
  kspace_style pppm/molc 1e-4

# ----------------- Atom Definition Section -----------------

read_data "01_water_cg.data"
Reading data file ...
  orthogonal box = (-12.8 -12.8 -12.8) to (12.8 12.8 12.8)
  reading atoms ...
  64 atoms
  64 ellipsoids
Finding 1-2 1-3 1-4 neighbors ...
     0 = max # of 1-2 neighbors
     0 = max # of 1-3 neighbors
     0 = max # of 1-4 neighbors
     1 = max # of special neighbors

# ----------------- Settings Section -----------------

include "01_water_cg.in.settings"
     mass 1  18.0152

     # MOLC parameters.
     # epsilon0, sigma0, eps_x, eps_y, eps_z, n_charges, (xi, yi, zi, qi)_ntimes
     pair_coeff 1 1 0.18519 3.1589 1 1 1 3       0.00000  0.154600  0.0  -1.1128       0.75695  0.585882  0.0   0.5564      -0.75695  0.585882  0.0   0.5564

# ----------------- Run Section -----------------

include "01_water_cg.in.run"
# Derived variables.
variable d       equal $p*$s        # thermo interval
variable d       equal 1000*$s
variable d       equal 1000*5
variable dcycle  equal $d            # dump interval (same as thermo)
variable dcycle  equal 5000
variable tcouple equal 10*100
variable pcouple equal 10*1000

# Create a random seed.
shell dd if=/dev/urandom of=/tmp/random_number count=2 bs=1
shell od -An --format=dI /tmp/random_number > /tmp/seed
variable s1 file /tmp/seed
variable s2 equal abs(v_s1)
Random Seed 48354
variable r1 equal random(10000,1000000,48354)

# Physical observables.
compute q               all property/atom quatw quati quatj quatk
compute diameter        all property/atom shapex shapey shapez
compute temp_trasl      all temp
compute temp_rototrasl  all temp/asphere dof all
compute press_trasl     all pressure temp_trasl pair kspace bond

# Output.
thermo       $d
thermo       5000
thermo_style custom step etotal evdwl ecoul elong ebond ke pe temp press vol density cpu
thermo_modify temp temp_rototrasl press press_trasl flush yes
dump 1 all custom 5000 01_water_cg.dump id type xu yu zu c_q[1] c_q[2] c_q[3] c_q[4] c_diameter[1] c_diameter[2] c_diameter[3] vx vy vz angmomx angmomy angmomz mol
dump_modify 1 colname c_q[1] quatw colname c_q[2] quati               colname c_q[3] quatj colname c_q[4] quatk

# 1. Shrink the cell in short runs.
timestep        10
velocity        all create 298.15 391624 dist gaussian
fix             2 all nph/asphere iso 1. 1. 10000
fix_modify      2 press press_trasl
variable r format r1 %.0f
fix             3 all langevin 298.15 298.15 1000 $r angmom 0.9
fix             3 all langevin 298.15 298.15 1000 725252 angmom 0.9
fix_modify      3 temp temp_rototrasl
# 0.1 ns per cycle.
label    cycle1
variable i loop 50
*** Shrinking step 1/50 ***
  run    100
PPPM/MOlC initialization ...
  G vector (1/distance) = 0.18542426
  grid = 9 9 9
  stencil order = 5
  estimated absolute RMS force accuracy = 0.019684411
  estimated relative force accuracy = 5.9279018e-05
  3d grid and FFT values/proc = 1936 243
Generated 0 of 0 mixed pair_coeff terms from arithmetic mixing rule
  update every 1 steps, delay 10 steps, check yes
Step         TotEng         E_vdwl         E_coul         E_long         E_bond         KinEng         PotEng          Temp          Press          Volume        Density          CPU
0   20.845652     -2.6734983      4096.9913     -4129.462       0              55.989897     -35.144245      147.90118     -181.21179      16777.216      0.11411644     0
Loop time of 0.0536135 on 4 procs for 100 steps with 64 atoms

  variable r format r1 %.0f
  next   i
jump SELF cycle1
variable i loop 50
*** Shrinking step 2/50 ***
  run    100
PPPM/MOlC initialization ...
  G vector (1/distance) = 0.18609201
  grid = 9 9 9
  stencil order = 5
  estimated absolute RMS force accuracy = 0.019058141
  estimated relative force accuracy = 5.7393025e-05
  3d grid and FFT values/proc = 1936 243
Generated 0 of 0 mixed pair_coeff terms from arithmetic mixing rule
Step         TotEng         E_vdwl         E_coul         E_long         E_bond         KinEng         PotEng          Temp          Press          Volume        Density          CPU
100  -1.8330443      15.057454      3962.6754     -4136.4192      0              156.85328     -158.68633      414.33879     -266.6349       16239.171      0.11789741     0
Loop time of 0.0504281 on 4 procs for 100 steps with 64 atoms

  variable r format r1 %.0f
  next   i
jump SELF cycle1
variable i loop 50
*** Shrinking step 3/50 ***
  run    100
PPPM/MOlC initialization ...
  G vector (1/distance) = 0.18828953
  grid = 9 9 9
  stencil order = 5
  estimated absolute RMS force accuracy = 0.017118692
  estimated relative force accuracy = 5.1552432e-05
  3d grid and FFT values/proc = 1936 243
Generated 0 of 0 mixed pair_coeff terms from arithmetic mixing rule
Step         TotEng         E_vdwl         E_coul         E_long         E_bond         KinEng         PotEng          Temp          Press          Volume        Density          CPU
200  -118.37086      61.849528      3846.2891     -4184.7406      0              158.23106     -276.60192      417.97828      0.68011106     14577.573      0.13133573     0
Loop time of 0.0577458 on 4 procs for 100 steps with 64 atoms

  variable r format r1 %.0f
  next   i
jump SELF cycle1
variable i loop 50
*** Shrinking step 4/50 ***
  run    100
PPPM/MOlC initialization ...
  G vector (1/distance) = 0.18414221
  grid = 8 8 8
  stencil order = 5
  estimated absolute RMS force accuracy = 0.024983516
  estimated relative force accuracy = 7.5237116e-05
  3d grid and FFT values/proc = 1815 128
Generated 0 of 0 mixed pair_coeff terms from arithmetic mixing rule
Step         TotEng         E_vdwl         E_coul         E_long         E_bond         KinEng         PotEng          Temp          Press          Volume        Density          CPU
300  -191.8463       53.191325      3696.4884     -4094.185       0              152.659       -344.5053       403.25929     -481.87076      12540.993      0.15266384     0
Loop time of 0.0586582 on 4 procs for 100 steps with 64 atoms

  variable r format r1 %.0f
  next   i
jump SELF cycle1
variable i loop 50
*** Shrinking step 5/50 ***
  run    100
PPPM/MOlC initialization ...
  G vector (1/distance) = 0.1870908
  grid = 8 8 8
  stencil order = 5
  estimated absolute RMS force accuracy = 0.021662473
  estimated relative force accuracy = 6.5235894e-05
  3d grid and FFT values/proc = 1815 128
Generated 0 of 0 mixed pair_coeff terms from arithmetic mixing rule
Step         TotEng         E_vdwl         E_coul         E_long         E_bond         KinEng         PotEng          Temp          Press          Volume        Density          CPU
400  -267.83296      58.565175      3690.3952     -4158.3955      0              141.60219     -409.43516      374.05198     -610.63995      10860.943      0.176279       0
Loop time of 0.0651303 on 4 procs for 100 steps with 64 atoms

  variable r format r1 %.0f
  next   i
jump SELF cycle1
variable i loop 50
*** Shrinking step 6/50 ***
  run    100
PPPM/MOlC initialization ...
  G vector (1/distance) = 0.18971646
  grid = 8 8 8
  stencil order = 5
  estimated absolute RMS force accuracy = 0.019038351
  estimated relative force accuracy = 5.7333429e-05
  3d grid and FFT values/proc = 1815 128
Generated 0 of 0 mixed pair_coeff terms from arithmetic mixing rule
Step         TotEng         E_vdwl         E_coul         E_long         E_bond         KinEng         PotEng          Temp          Press          Volume        Density          CPU
500  -323.85141      88.221558      3661.5918     -4217.8921      0              144.22737     -468.07877      380.98656     -522.03853      9540.5513      0.20067564     0
Loop time of 0.0681063 on 4 procs for 100 steps with 64 atoms

  variable r format r1 %.0f
  next   i
jump SELF cycle1
variable i loop 50
*** Shrinking step 7/50 ***
  run    100
PPPM/MOlC initialization ...
  G vector (1/distance) = 0.19232321
  grid = 8 8 8
  stencil order = 5
  estimated absolute RMS force accuracy = 0.016714983
  estimated relative force accuracy = 5.0336674e-05
  3d grid and FFT values/proc = 1815 128
Generated 0 of 0 mixed pair_coeff terms from arithmetic mixing rule
Step         TotEng         E_vdwl         E_coul         E_long         E_bond         KinEng         PotEng          Temp          Press          Volume        Density          CPU
600  -351.29125      83.841386      3711.8363     -4275.6107      0              128.64174     -479.93298      339.81603     -663.26457      8375.6032      0.22858726     0
Loop time of 0.0717415 on 4 procs for 100 steps with 64 atoms

  variable r format r1 %.0f
  next   i
jump SELF cycle1
variable i loop 50
*** Shrinking step 8/50 ***
  run    100
PPPM/MOlC initialization ...
  G vector (1/distance) = 0.19499082
  grid = 8 8 8
  stencil order = 5
  estimated absolute RMS force accuracy = 0.014601016
  estimated relative force accuracy = 4.3970526e-05
  3d grid and FFT values/proc = 1815 128
Generated 0 of 0 mixed pair_coeff terms from arithmetic mixing rule
Step         TotEng         E_vdwl         E_coul         E_long         E_bond         KinEng         PotEng          Temp          Press          Volume        Density          CPU
700  -383.93572      106.79463      3717.6373     -4339.336       0              130.96837     -514.90409      345.962       -304.57015      7317.9146      0.26162593     0
Loop time of 0.0807686 on 4 procs for 100 steps with 64 atoms

  variable r format r1 %.0f
  next   i
jump SELF cycle1
variable i loop 50
*** Shrinking step 9/50 ***
  run    100
PPPM/MOlC initialization ...
  G vector (1/distance) = 0.19753236
  grid = 8 8 8
  stencil order = 5
  estimated absolute RMS force accuracy = 0.012816499
  estimated relative force accuracy = 3.8596505e-05
  3d grid and FFT values/proc = 1815 128
Generated 0 of 0 mixed pair_coeff terms from arithmetic mixing rule
Step         TotEng         E_vdwl         E_coul         E_long         E_bond         KinEng         PotEng          Temp          Press          Volume        Density          CPU
800  -420.7706       99.648843      3757.1858     -4393.2454      0              115.64016     -536.41075      305.47146     -748.72694      6427.495       0.29786973     0
Loop time of 0.0921873 on 4 procs for 100 steps with 64 atoms

  variable r format r1 %.0f
  next   i
jump SELF cycle1
variable i loop 50
*** Shrinking step 10/50 ***
  run    100
PPPM/MOlC initialization ...
  G vector (1/distance) = 0.20002914
  grid = 8 8 8
  stencil order = 5
  estimated absolute RMS force accuracy = 0.011255028
  estimated relative force accuracy = 3.3894183e-05
  3d grid and FFT values/proc = 1815 128
Generated 0 of 0 mixed pair_coeff terms from arithmetic mixing rule
Step         TotEng         E_vdwl         E_coul         E_long         E_bond         KinEng         PotEng          Temp          Press          Volume        Density          CPU
900  -422.08815      113.16966      3803.0508     -4449.5524      0              111.24373     -533.33187      293.85799     -119.0309       5648.0637      0.33897568     0
Loop time of 0.113497 on 4 procs for 100 steps with 64 atoms

  variable r format r1 %.0f
  next   i
jump SELF cycle1
variable i loop 50
*** Shrinking step 11/50 ***
  run    100
PPPM/MOlC initialization ...
  G vector (1/distance) = 0.20236774
  grid = 8 8 8
  stencil order = 5
  estimated absolute RMS force accuracy = 0.0099505434
  estimated relative force accuracy = 2.9965766e-05
  3d grid and FFT values/proc = 1815 128
Generated 0 of 0 mixed pair_coeff terms from arithmetic mixing rule
Step         TotEng         E_vdwl         E_coul         E_long         E_bond         KinEng         PotEng          Temp          Press          Volume        Density          CPU
1000  -435.00519      90.261508      3841.7442     -4502.4446      0              135.43367     -570.43886      357.7574      -1734.8504      4996.7774      0.38315819     0
Loop time of 0.120621 on 4 procs for 100 steps with 64 atoms

  variable r format r1 %.0f
  next   i
jump SELF cycle1
variable i loop 50
*** Shrinking step 12/50 ***
  run    100
PPPM/MOlC initialization ...
  G vector (1/distance) = 0.20491827
  grid = 8 8 8
  stencil order = 5
  estimated absolute RMS force accuracy = 0.0086853762
  estimated relative force accuracy = 2.6155753e-05
  3d grid and FFT values/proc = 1815 128
Generated 0 of 0 mixed pair_coeff terms from arithmetic mixing rule
Step         TotEng         E_vdwl         E_coul         E_long         E_bond         KinEng         PotEng          Temp          Press          Volume        Density          CPU
1100  -470.45659      126.32949      3841.9487     -4559.1695      0              120.43468     -590.89127      318.13654     -204.23375      4364.6327      0.43865231     0
Loop time of 0.144268 on 4 procs for 100 steps with 64 atoms

  variable r format r1 %.0f
  next   i
jump SELF cycle1
variable i loop 50
*** Shrinking step 13/50 ***
  run    100
PPPM/MOlC initialization ...
  G vector (1/distance) = 0.20726883
  grid = 8 8 8
  stencil order = 5
  estimated absolute RMS force accuracy = 0.00765085
  estimated relative force accuracy = 2.3040308e-05
  3d grid and FFT values/proc = 1815 128
Generated 0 of 0 mixed pair_coeff terms from arithmetic mixing rule
Step         TotEng         E_vdwl         E_coul         E_long         E_bond         KinEng         PotEng          Temp          Press          Volume        Density          CPU
1200  -510.19087      113.29908      3870.4784     -4612.2827      0              118.31433     -628.50521      312.53549     -1557.5251      3847.0787      0.49766495     0
Loop time of 0.15568 on 4 procs for 100 steps with 64 atoms

  variable r format r1 %.0f
  next   i
jump SELF cycle1
variable i loop 50
*** Shrinking step 14/50 ***
  run    100
PPPM/MOlC initialization ...
  G vector (1/distance) = 0.20967631
  grid = 8 8 8
  stencil order = 5
  estimated absolute RMS force accuracy = 0.0067088729
  estimated relative force accuracy = 2.0203571e-05
  3d grid and FFT values/proc = 1815 128
Generated 0 of 0 mixed pair_coeff terms from arithmetic mixing rule
Step         TotEng         E_vdwl         E_coul         E_long         E_bond         KinEng         PotEng          Temp          Press          Volume        Density          CPU
1300  -523.9551       118.76721      3903.5271     -4667.2951      0              121.04566     -645.00076      319.75047     -1689.9711      3375.0494      0.56726762     0
Loop time of 0.179399 on 4 procs for 100 steps with 64 atoms

  variable r format r1 %.0f
  next   i
jump SELF cycle1
variable i loop 50
*** Shrinking step 15/50 ***
  run    100
PPPM/MOlC initialization ...
  G vector (1/distance) = 0.21214962
  grid = 8 8 8
  stencil order = 5
  estimated absolute RMS force accuracy = 0.0058524383
  estimated relative force accuracy = 1.7624444e-05
  3d grid and FFT values/proc = 1815 128
Generated 0 of 0 mixed pair_coeff terms from arithmetic mixing rule
Step         TotEng         E_vdwl         E_coul         E_long         E_bond         KinEng         PotEng          Temp          Press          Volume        Density          CPU
1400  -545.28292      130.74825      3936.1565     -4722.6955      0              110.5079      -655.79082      291.91425     -523.41495      2944.9669      0.65011128     0
Loop time of 0.159327 on 4 procs for 100 steps with 64 atoms

  variable r format r1 %.0f
  next   i
jump SELF cycle1
variable i loop 50
*** Shrinking step 16/50 ***
  run    100
PPPM/MOlC initialization ...
  G vector (1/distance) = 0.19808986
  grid = 6 6 6
  stencil order = 5
  estimated absolute RMS force accuracy = 0.019170458
  estimated relative force accuracy = 5.7731264e-05
  3d grid and FFT values/proc = 1300 72
Generated 0 of 0 mixed pair_coeff terms from arithmetic mixing rule
Step         TotEng         E_vdwl         E_coul         E_long         E_bond         KinEng         PotEng          Temp          Press          Volume        Density          CPU
1500  -563.17701      116.98513      3613.9112     -4409.8606      0              115.78725     -678.96426      305.86002     -2154.4414      2634.7096      0.72666689     0
Loop time of 0.165292 on 4 procs for 100 steps with 64 atoms

  variable r format r1 %.0f
  next   i
jump SELF cycle1
variable i loop 50
*** Shrinking step 17/50 ***
  run    100
PPPM/MOlC initialization ...
  G vector (1/distance) = 0.20027747
  grid = 6 6 6
  stencil order = 5
  estimated absolute RMS force accuracy = 0.017103164
  estimated relative force accuracy = 5.150567e-05
  3d grid and FFT values/proc = 1300 72
Generated 0 of 0 mixed pair_coeff terms from arithmetic mixing rule
Step         TotEng         E_vdwl         E_coul         E_long         E_bond         KinEng         PotEng          Temp          Press          Volume        Density          CPU
1600  -570.29035      120.29027      3646.5895     -4459.4675      0              122.29738     -692.58772      323.05697     -1947.9614      2351.8868      0.81405119     0
Loop time of 0.170603 on 4 procs for 100 steps with 64 atoms

  variable r format r1 %.0f
  next   i
jump SELF cycle1
variable i loop 50
*** Shrinking step 18/50 ***
  run    100
PPPM/MOlC initialization ...
  G vector (1/distance) = 0.20193063
  grid = 6 6 6
  stencil order = 5
  estimated absolute RMS force accuracy = 0.015676427
  estimated relative force accuracy = 4.7209095e-05
  3d grid and FFT values/proc = 1300 72
Generated 0 of 0 mixed pair_coeff terms from arithmetic mixing rule
Step         TotEng         E_vdwl         E_coul         E_long         E_bond         KinEng         PotEng          Temp          Press          Volume        Density          CPU
1700  -564.66693      124.26374      3691.1379     -4496.6005      0              116.53193     -681.19886      307.82714     -763.35674      2156.6089      0.88776236     0
Loop time of 0.180675 on 4 procs for 100 steps with 64 atoms

  variable r format r1 %.0f
  next   i
jump SELF cycle1
variable i loop 50
*** Shrinking step 19/50 ***
  run    100
PPPM/MOlC initialization ...
  G vector (1/distance) = 0.20293021
  grid = 6 6 6
  stencil order = 5
  estimated absolute RMS force accuracy = 0.014866611
  estimated relative force accuracy = 4.4770358e-05
  3d grid and FFT values/proc = 1300 72
Generated 0 of 0 mixed pair_coeff terms from arithmetic mixing rule
Step         TotEng         E_vdwl         E_coul         E_long         E_bond         KinEng         PotEng          Temp          Press          Volume        Density          CPU
1800  -576.88105      132.25591      3690.104      -4519.1073      0              119.86627     -696.74732      316.63504     -345.27503      2045.6979      0.93589393     0
Loop time of 0.195654 on 4 procs for 100 steps with 64 atoms

  variable r format r1 %.0f
  next   i
jump SELF cycle1
variable i loop 50
*** Shrinking step 20/50 ***
  run    100
PPPM/MOlC initialization ...
  G vector (1/distance) = 0.20387378
  grid = 6 6 6
  stencil order = 5
  estimated absolute RMS force accuracy = 0.01414079
  estimated relative force accuracy = 4.2584569e-05
  3d grid and FFT values/proc = 1300 72
Generated 0 of 0 mixed pair_coeff terms from arithmetic mixing rule
Step         TotEng         E_vdwl         E_coul         E_long         E_bond         KinEng         PotEng          Temp          Press          Volume        Density          CPU
1900  -576.07189      119.72354      3710.4486     -4540.096       0              133.85202     -709.92391      353.57937     -1391.2941      1946.6277      0.98352457     0
Loop time of 0.206817 on 4 procs for 100 steps with 64 atoms

  variable r format r1 %.0f
  next   i
jump SELF cycle1
variable i loop 50
*** Shrinking step 21/50 ***
  run    100
PPPM/MOlC initialization ...
  G vector (1/distance) = 0.20451619
  grid = 6 6 6
  stencil order = 5
  estimated absolute RMS force accuracy = 0.013663413
  estimated relative force accuracy = 4.1146964e-05
  3d grid and FFT values/proc = 1300 72
Generated 0 of 0 mixed pair_coeff terms from arithmetic mixing rule
Step         TotEng         E_vdwl         E_coul         E_long         E_bond         KinEng         PotEng          Temp          Press          Volume        Density          CPU
2000  -591.52744      122.53982      3710.9616     -4554.15        0              129.12111     -720.64855      341.08234     -510.60392      1881.2562      1.0177009      0
Loop time of 0.259857 on 4 procs for 100 steps with 64 atoms

  variable r format r1 %.0f
  next   i
jump SELF cycle1
variable i loop 50
*** Shrinking step 22/50 ***
  run    100
PPPM/MOlC initialization ...
  G vector (1/distance) = 0.20444814
  grid = 6 6 6
  stencil order = 5
  estimated absolute RMS force accuracy = 0.013713279
  estimated relative force accuracy = 4.1297132e-05
  3d grid and FFT values/proc = 1300 72
Generated 0 of 0 mixed pair_coeff terms from arithmetic mixing rule
Step         TotEng         E_vdwl         E_coul         E_long         E_bond         KinEng         PotEng          Temp          Press          Volume        Density          CPU
2100  -578.50824      110.31826      3731.6875     -4552.7773      0              132.2633      -710.77154      349.38265     -1711.1353      1888.0856      1.0140198      0
Loop time of 0.243287 on 4 procs for 100 steps with 64 atoms

  variable r format r1 %.0f
  next   i
jump SELF cycle1
variable i loop 50
*** Shrinking step 23/50 ***
  run    100
PPPM/MOlC initialization ...
  G vector (1/distance) = 0.20429925
  grid = 6 6 6
  stencil order = 5
  estimated absolute RMS force accuracy = 0.013822954
  estimated relative force accuracy = 4.1627417e-05
  3d grid and FFT values/proc = 1300 72
Generated 0 of 0 mixed pair_coeff terms from arithmetic mixing rule
Step         TotEng         E_vdwl         E_coul         E_long         E_bond         KinEng         PotEng          Temp          Press          Volume        Density          CPU
2200  -585.6115       138.77243      3701.3621     -4549.2008      0              123.45476     -709.06626      326.11429      1740.5726      1903.1057      1.0060167      0
Loop time of 0.218598 on 4 procs for 100 steps with 64 atoms

  variable r format r1 %.0f
  next   i
jump SELF cycle1
variable i loop 50
*** Shrinking step 24/50 ***
  run    100
PPPM/MOlC initialization ...
  G vector (1/distance) = 0.20424337
  grid = 6 6 6
  stencil order = 5
  estimated absolute RMS force accuracy = 0.013864326
  estimated relative force accuracy = 4.1752006e-05
  3d grid and FFT values/proc = 1300 72
Generated 0 of 0 mixed pair_coeff terms from arithmetic mixing rule
Step         TotEng         E_vdwl         E_coul         E_long         E_bond         KinEng         PotEng          Temp          Press          Volume        Density          CPU
2300  -603.75048      136.86654      3707.8711     -4548.1123      0              99.62425      -703.37473      263.16434      1262.2016      1908.7713      1.0030307      0
Loop time of 0.231881 on 4 procs for 100 steps with 64 atoms

  variable r format r1 %.0f
  next   i
jump SELF cycle1
variable i loop 50
*** Shrinking step 25/50 ***
  run    100
PPPM/MOlC initialization ...
  G vector (1/distance) = 0.20419739
  grid = 6 6 6
  stencil order = 5
  estimated absolute RMS force accuracy = 0.013898449
  estimated relative force accuracy = 4.1854766e-05
  3d grid and FFT values/proc = 1300 72
Generated 0 of 0 mixed pair_coeff terms from arithmetic mixing rule
Step         TotEng         E_vdwl         E_coul         E_long         E_bond         KinEng         PotEng          Temp          Press          Volume        Density          CPU
2400  -624.46405      124.49021      3703.1398     -4547.3004      0              95.206364     -719.67042      251.49419     -690.5051       1913.4441      1.0005812      0
Loop time of 0.227792 on 4 procs for 100 steps with 64 atoms

  variable r format r1 %.0f
  next   i
jump SELF cycle1
variable i loop 50
*** Shrinking step 26/50 ***
  run    100
PPPM/MOlC initialization ...
  G vector (1/distance) = 0.20408703
  grid = 6 6 6
  stencil order = 5
  estimated absolute RMS force accuracy = 0.013980664
  estimated relative force accuracy = 4.2102354e-05
  3d grid and FFT values/proc = 1300 72
Generated 0 of 0 mixed pair_coeff terms from arithmetic mixing rule
Step         TotEng         E_vdwl         E_coul         E_long         E_bond         KinEng         PotEng          Temp          Press          Volume        Density          CPU
2500  -601.56838      106.94026      3723.4749     -4544.8244      0              112.8409      -714.40928      298.07704     -3013.5017      1924.7023      0.99472851     0
Loop time of 0.20503 on 4 procs for 100 steps with 64 atoms

  variable r format r1 %.0f
  next   i
jump SELF cycle1
variable i loop 50
*** Shrinking step 27/50 ***
  run    100
PPPM/MOlC initialization ...
  G vector (1/distance) = 0.20457247
  grid = 6 6 6
  stencil order = 5
  estimated absolute RMS force accuracy = 0.013622299
  estimated relative force accuracy = 4.1023148e-05
  3d grid and FFT values/proc = 1300 72
Generated 0 of 0 mixed pair_coeff terms from arithmetic mixing rule
Step         TotEng         E_vdwl         E_coul         E_long         E_bond         KinEng         PotEng          Temp          Press          Volume        Density          CPU
2600  -605.61351      121.90278      3721.7482     -4555.4267      0              106.1622      -711.7757       280.43478     -624.76433      1875.6251      1.0207563      0
Loop time of 0.22606 on 4 procs for 100 steps with 64 atoms

  variable r format r1 %.0f
  next   i
jump SELF cycle1
variable i loop 50
*** Shrinking step 28/50 ***
  run    100
PPPM/MOlC initialization ...
  G vector (1/distance) = 0.20501769
  grid = 6 6 6
  stencil order = 5
  estimated absolute RMS force accuracy = 0.013300985
  estimated relative force accuracy = 4.0055521e-05
  3d grid and FFT values/proc = 1300 72
Generated 0 of 0 mixed pair_coeff terms from arithmetic mixing rule
Step         TotEng         E_vdwl         E_coul         E_long         E_bond         KinEng         PotEng          Temp          Press          Volume        Density          CPU
2700  -613.64734      161.51798      3673.704      -4565.6415      0              116.77213     -730.41947      308.46165      3985.5857      1831.6124      1.0452846      0
Loop time of 0.220895 on 4 procs for 100 steps with 64 atoms

  variable r format r1 %.0f
  next   i
jump SELF cycle1
variable i loop 50
*** Shrinking step 29/50 ***
  run    100
PPPM/MOlC initialization ...
  G vector (1/distance) = 0.20479166
  grid = 6 6 6
  stencil order = 5
  estimated absolute RMS force accuracy = 0.01346324
  estimated relative force accuracy = 4.0544146e-05
  3d grid and FFT values/proc = 1300 72
Generated 0 of 0 mixed pair_coeff terms from arithmetic mixing rule
Step         TotEng         E_vdwl         E_coul         E_long         E_bond         KinEng         PotEng          Temp          Press          Volume        Density          CPU
2800  -602.05699      124.03666      3715.6611     -4560.2509      0              118.49623     -720.55322      313.01599     -402.37631      1853.8388      1.0327522      0
Loop time of 0.229658 on 4 procs for 100 steps with 64 atoms

  variable r format r1 %.0f
  next   i
jump SELF cycle1
variable i loop 50
*** Shrinking step 30/50 ***
  run    100
PPPM/MOlC initialization ...
  G vector (1/distance) = 0.20466588
  grid = 6 6 6
  stencil order = 5
  estimated absolute RMS force accuracy = 0.013554303
  estimated relative force accuracy = 4.0818381e-05
  3d grid and FFT values/proc = 1300 72
Generated 0 of 0 mixed pair_coeff terms from arithmetic mixing rule
Step         TotEng         E_vdwl         E_coul         E_long         E_bond         KinEng         PotEng          Temp          Press          Volume        Density          CPU
2900  -608.74902      130.15723      3716.4959     -4557.5106      0              102.10843     -710.85745      269.72648      723.22458      1866.3121      1.02585        0
Loop time of 0.242228 on 4 procs for 100 steps with 64 atoms

  variable r format r1 %.0f
  next   i
jump SELF cycle1
variable i loop 50
*** Shrinking step 31/50 ***
  run    100
PPPM/MOlC initialization ...
  G vector (1/distance) = 0.20481785
  grid = 6 6 6
  stencil order = 5
  estimated absolute RMS force accuracy = 0.013444347
  estimated relative force accuracy = 4.048725e-05
  3d grid and FFT values/proc = 1300 72
Generated 0 of 0 mixed pair_coeff terms from arithmetic mixing rule
Step         TotEng         E_vdwl         E_coul         E_long         E_bond         KinEng         PotEng          Temp          Press          Volume        Density          CPU
3000  -626.22247      125.88565      3689.7586     -4561.205       0              119.33823     -745.5607       315.24018     -1738.2551      1851.2509      1.034196       0
Loop time of 0.260146 on 4 procs for 100 steps with 64 atoms

  variable r format r1 %.0f
  next   i
jump SELF cycle1
variable i loop 50
*** Shrinking step 32/50 ***
  run    100
PPPM/MOlC initialization ...
  G vector (1/distance) = 0.20524774
  grid = 6 6 6
  stencil order = 5
  estimated absolute RMS force accuracy = 0.013137679
  estimated relative force accuracy = 3.956373e-05
  3d grid and FFT values/proc = 1300 72
Generated 0 of 0 mixed pair_coeff terms from arithmetic mixing rule
Step         TotEng         E_vdwl         E_coul         E_long         E_bond         KinEng         PotEng          Temp          Press          Volume        Density          CPU
3100  -600.04468      149.2833       3694.1955     -4570.1998      0              126.67625     -726.72093      334.62408      2296.1066      1809.2395      1.0582105      0
Loop time of 0.23442 on 4 procs for 100 steps with 64 atoms

  variable r format r1 %.0f
  next   i
jump SELF cycle1
variable i loop 50
*** Shrinking step 33/50 ***
  run    100
PPPM/MOlC initialization ...
  G vector (1/distance) = 0.20527687
  grid = 6 6 6
  stencil order = 5
  estimated absolute RMS force accuracy = 0.013117136
  estimated relative force accuracy = 3.9501865e-05
  3d grid and FFT values/proc = 1300 72
Generated 0 of 0 mixed pair_coeff terms from arithmetic mixing rule
Step         TotEng         E_vdwl         E_coul         E_long         E_bond         KinEng         PotEng          Temp          Press          Volume        Density          CPU
3200  -613.65094      170.38982      3670.1042     -4571.3736      0              117.22861     -730.87955      309.66747      4335.4918      1806.4249      1.0598593      0
Loop time of 0.208763 on 4 procs for 100 steps with 64 atoms

  variable r format r1 %.0f
  next   i
jump SELF cycle1
variable i loop 50
*** Shrinking step 34/50 ***
  run    100
PPPM/MOlC initialization ...
  G vector (1/distance) = 0.20534507
  grid = 6 6 6
  stencil order = 5
  estimated absolute RMS force accuracy = 0.01306914
  estimated relative force accuracy = 3.9357326e-05
  3d grid and FFT values/proc = 1300 72
Generated 0 of 0 mixed pair_coeff terms from arithmetic mixing rule
Step         TotEng         E_vdwl         E_coul         E_long         E_bond         KinEng         PotEng          Temp          Press          Volume        Density          CPU
3300  -606.87374      110.06518      3730.0927     -4572.7808      0              125.74912     -732.62286      332.175       -1954.1516      1799.8489      1.0637317      0
Loop time of 0.218623 on 4 procs for 100 steps with 64 atoms

  variable r format r1 %.0f
  next   i
jump SELF cycle1
variable i loop 50
*** Shrinking step 35/50 ***
  run    100
PPPM/MOlC initialization ...
  G vector (1/distance) = 0.20555089
  grid = 6 6 6
  stencil order = 5
  estimated absolute RMS force accuracy = 0.012925275
  estimated relative force accuracy = 3.8924083e-05
  3d grid and FFT values/proc = 1300 72
Generated 0 of 0 mixed pair_coeff terms from arithmetic mixing rule
Step         TotEng         E_vdwl         E_coul         E_long         E_bond         KinEng         PotEng          Temp          Press          Volume        Density          CPU
3400  -620.47225      126.61907      3721.9028     -4577.28        0              108.28586     -728.75811      286.04458      642.08813      1780.1362      1.0755111      0
Loop time of 0.221471 on 4 procs for 100 steps with 64 atoms

  variable r format r1 %.0f
  next   i
jump SELF cycle1
variable i loop 50
*** Shrinking step 36/50 ***
  run    100
PPPM/MOlC initialization ...
  G vector (1/distance) = 0.20574558
  grid = 6 6 6
  stencil order = 5
  estimated absolute RMS force accuracy = 0.012790518
  estimated relative force accuracy = 3.8518266e-05
  3d grid and FFT values/proc = 1300 72
Generated 0 of 0 mixed pair_coeff terms from arithmetic mixing rule
Step         TotEng         E_vdwl         E_coul         E_long         E_bond         KinEng         PotEng          Temp          Press          Volume        Density          CPU
3500  -620.56887      115.85754      3731.9196     -4581.8424      0              113.49647     -734.06535      299.80878     -806.62911      1761.6695      1.0867851      0
Loop time of 0.242274 on 4 procs for 100 steps with 64 atoms

  variable r format r1 %.0f
  next   i
jump SELF cycle1
variable i loop 50
*** Shrinking step 37/50 ***
  run    100
PPPM/MOlC initialization ...
  G vector (1/distance) = 0.20597867
  grid = 6 6 6
  stencil order = 5
  estimated absolute RMS force accuracy = 0.012630865
  estimated relative force accuracy = 3.8037473e-05
  3d grid and FFT values/proc = 1300 72
Generated 0 of 0 mixed pair_coeff terms from arithmetic mixing rule
Step         TotEng         E_vdwl         E_coul         E_long         E_bond         KinEng         PotEng          Temp          Press          Volume        Density          CPU
3600  -626.09017      132.06768      3718.396      -4587.1358      0              110.58201     -736.67218      292.11003      1076.3068      1739.7885      1.1004534      0
Loop time of 0.228471 on 4 procs for 100 steps with 64 atoms

  variable r format r1 %.0f
  next   i
jump SELF cycle1
variable i loop 50
*** Shrinking step 38/50 ***
  run    100
PPPM/MOlC initialization ...
  G vector (1/distance) = 0.20559355
  grid = 6 6 6
  stencil order = 5
  estimated absolute RMS force accuracy = 0.012895639
  estimated relative force accuracy = 3.8834834e-05
  3d grid and FFT values/proc = 1300 72
Generated 0 of 0 mixed pair_coeff terms from arithmetic mixing rule
Step         TotEng         E_vdwl         E_coul         E_long         E_bond         KinEng         PotEng          Temp          Press          Volume        Density          CPU
3700  -631.86661      145.94463      3690.3542     -4578.4732      0              110.30767     -742.17428      291.38534      2237.7454      1776.0751      1.0779703      0
Loop time of 0.220545 on 4 procs for 100 steps with 64 atoms

  variable r format r1 %.0f
  next   i
jump SELF cycle1
variable i loop 50
*** Shrinking step 39/50 ***
  run    100
PPPM/MOlC initialization ...
  G vector (1/distance) = 0.20494438
  grid = 6 6 6
  stencil order = 5
  estimated absolute RMS force accuracy = 0.013353418
  estimated relative force accuracy = 4.0213422e-05
  3d grid and FFT values/proc = 1300 72
Generated 0 of 0 mixed pair_coeff terms from arithmetic mixing rule
Step         TotEng         E_vdwl         E_coul         E_long         E_bond         KinEng         PotEng          Temp          Press          Volume        Density          CPU
3800  -616.58905      121.97461      3707.6798     -4563.5161      0              117.27268     -733.86173      309.7839      -1057.7489      1838.7952      1.0412014      0
Loop time of 0.25832 on 4 procs for 100 steps with 64 atoms

  variable r format r1 %.0f
  next   i
jump SELF cycle1
variable i loop 50
*** Shrinking step 40/50 ***
  run    100
PPPM/MOlC initialization ...
  G vector (1/distance) = 0.20530852
  grid = 6 6 6
  stencil order = 5
  estimated absolute RMS force accuracy = 0.01309484
  estimated relative force accuracy = 3.9434722e-05
  3d grid and FFT values/proc = 1300 72
Generated 0 of 0 mixed pair_coeff terms from arithmetic mixing rule
Step         TotEng         E_vdwl         E_coul         E_long         E_bond         KinEng         PotEng          Temp          Press          Volume        Density          CPU
3900  -638.73939      113.84341      3727.5462     -4572.0552      0              91.926253     -730.66565      242.82955     -1013.1458      1803.3702      1.0616546      0
Loop time of 0.302845 on 4 procs for 100 steps with 64 atoms

  variable r format r1 %.0f
  next   i
jump SELF cycle1
variable i loop 50
*** Shrinking step 41/50 ***
  run    100
PPPM/MOlC initialization ...
  G vector (1/distance) = 0.20607507
  grid = 6 6 6
  stencil order = 5
  estimated absolute RMS force accuracy = 0.012565368
  estimated relative force accuracy = 3.7840234e-05
  3d grid and FFT values/proc = 1300 72
Generated 0 of 0 mixed pair_coeff terms from arithmetic mixing rule
Loop time of 0.286114 on 4 procs for 100 steps with 64 atoms

  variable r format r1 %.0f
  next   i
jump SELF cycle1
variable i loop 50
*** Shrinking step 42/50 ***
  run    100
PPPM/MOlC initialization ...
  G vector (1/distance) = 0.20539863
  grid = 6 6 6
  stencil order = 5
  estimated absolute RMS force accuracy = 0.013031563
  estimated relative force accuracy = 3.9244164e-05
  3d grid and FFT values/proc = 1300 72
Generated 0 of 0 mixed pair_coeff terms from arithmetic mixing rule
Loop time of 0.275806 on 4 procs for 100 steps with 64 atoms

  variable r format r1 %.0f
  next   i
jump SELF cycle1
variable i loop 50
*** Shrinking step 43/50 ***
  run    100
PPPM/MOlC initialization ...
  G vector (1/distance) = 0.20492092
  grid = 6 6 6
  stencil order = 5
  estimated absolute RMS force accuracy = 0.013370235
  estimated relative force accuracy = 4.0264065e-05
  3d grid and FFT values/proc = 1300 72
Generated 0 of 0 mixed pair_coeff terms from arithmetic mixing rule
Loop time of 0.239268 on 4 procs for 100 steps with 64 atoms

  variable r format r1 %.0f
  next   i
jump SELF cycle1
variable i loop 50
*** Shrinking step 44/50 ***
  run    100
PPPM/MOlC initialization ...
  G vector (1/distance) = 0.20450094
  grid = 6 6 6
  stencil order = 5
  estimated absolute RMS force accuracy = 0.01367457
  estimated relative force accuracy = 4.1180562e-05
  3d grid and FFT values/proc = 1300 72
Generated 0 of 0 mixed pair_coeff terms from arithmetic mixing rule
Loop time of 0.248638 on 4 procs for 100 steps with 64 atoms

  variable r format r1 %.0f
  next   i
jump SELF cycle1
variable i loop 50
*** Shrinking step 45/50 ***
  run    100
PPPM/MOlC initialization ...
  G vector (1/distance) = 0.20504407
  grid = 6 6 6
  stencil order = 5
  estimated absolute RMS force accuracy = 0.013282166
  estimated relative force accuracy = 3.999885e-05
  3d grid and FFT values/proc = 1300 72
Generated 0 of 0 mixed pair_coeff terms from arithmetic mixing rule
Loop time of 0.278994 on 4 procs for 100 steps with 64 atoms

  variable r format r1 %.0f
  next   i
jump SELF cycle1
variable i loop 50
*** Shrinking step 46/50 ***
  run    100
PPPM/MOlC initialization ...
  G vector (1/distance) = 0.20556892
  grid = 6 6 6
  stencil order = 5
  estimated absolute RMS force accuracy = 0.012912743
  estimated relative force accuracy = 3.8886343e-05
  3d grid and FFT values/proc = 1300 72
Generated 0 of 0 mixed pair_coeff terms from arithmetic mixing rule
Loop time of 0.22401 on 4 procs for 100 steps with 64 atoms

  variable r format r1 %.0f
  next   i
jump SELF cycle1
variable i loop 50
*** Shrinking step 47/50 ***
  run    100
PPPM/MOlC initialization ...
  G vector (1/distance) = 0.20525499
  grid = 6 6 6
  stencil order = 5
  estimated absolute RMS force accuracy = 0.013132563
  estimated relative force accuracy = 3.9548323e-05
  3d grid and FFT values/proc = 1300 72
Generated 0 of 0 mixed pair_coeff terms from arithmetic mixing rule
Loop time of 0.240158 on 4 procs for 100 steps with 64 atoms

  variable r format r1 %.0f
  next   i
jump SELF cycle1
variable i loop 50
*** Shrinking step 48/50 ***
  run    100
PPPM/MOlC initialization ...
  G vector (1/distance) = 0.20497999
  grid = 6 6 6
  stencil order = 5
  estimated absolute RMS force accuracy = 0.013327923
  estimated relative force accuracy = 4.0136643e-05
  3d grid and FFT values/proc = 1300 72
Generated 0 of 0 mixed pair_coeff terms from arithmetic mixing rule
Loop time of 0.266933 on 4 procs for 100 steps with 64 atoms

  variable r format r1 %.0f
  next   i
jump SELF cycle1
variable i loop 50
*** Shrinking step 49/50 ***
  run    100
PPPM/MOlC initialization ...
  G vector (1/distance) = 0.20514878
  grid = 6 6 6
  stencil order = 5
  estimated absolute RMS force accuracy = 0.013207702
  estimated relative force accuracy = 3.9774604e-05
  3d grid and FFT values/proc = 1300 72
Generated 0 of 0 mixed pair_coeff terms from arithmetic mixing rule
Loop time of 0.254894 on 4 procs for 100 steps with 64 atoms

  variable r format r1 %.0f
  next   i
jump SELF cycle1
variable i loop 50
*** Shrinking step 50/50 ***
  run    100
PPPM/MOlC initialization ...
  G vector (1/distance) = 0.20539947
  grid = 6 6 6
  stencil order = 5
  estimated absolute RMS force accuracy = 0.013030974
  estimated relative force accuracy = 3.924239e-05
  3d grid and FFT values/proc = 1300 72
Generated 0 of 0 mixed pair_coeff terms from arithmetic mixing rule
Loop time of 0.265616 on 4 procs for 100 steps with 64 atoms

  variable r format r1 %.0f
  next   i
jump SELF cycle1
variable i delete

# 2. Production run.
run   50000
PPPM/MOlC initialization ...
  G vector (1/distance) = 0.20537105
  grid = 6 6 6
  stencil order = 5
  estimated absolute RMS force accuracy = 0.013050902
  estimated relative force accuracy = 3.9302405e-05
  3d grid and FFT values/proc = 1300 72
Generated 0 of 0 mixed pair_coeff terms from arithmetic mixing rule
Loop time of 113.461 on 4 procs for 50000 steps with 64 atoms

# ----------------- Run Section -----------------

# The lines above define the system you want to simulate.
# What you do next is up to you.
# Typically a user would minimize and equilibrate
# the system using commands similar to the following:
#  ----   examples   ----
#
#  -- minimize --
# minimize 1.0e-5 1.0e-7 1000 10000
# (Note: Some fixes, for example "shake", interfere with the minimize command,
#        You can use the "unfix" command to disable them before minimization.)
#  -- declare time step for normal MD --
# timestep 1.0
#  -- run at constant pressure (Nose-Hoover)--
# fix   fxnpt all npt temp 300.0 300.0 100.0 iso 1.0 1.0 1000.0 drag 1.0
#  -- ALTERNATELY, run at constant volume (Nose-Hoover) --
# fix   fxnvt all nvt temp 300.0 300.0 500.0 tchain 1
#  -- ALTERNATELY, run at constant volume using Langevin dynamics. --
#  -- (This is good for sparse CG polymers in implicit solvent.)   --
# fix fxLAN all langevin 300.0 300.0 5000 48279
# fix fxNVE all nve  #(<--needed by fix langevin)
#  -- Now, finally run the simulation --
# run   50000
#  ---- (end of examples) ----
