# Neighbour list.
  neighbor        3.0 bin
  neigh_modify    check yes

  # Force field definition.
  boundary p p p
  units           real
  atom_style      full
  bond_style      harmonic
  angle_style     charmm
  dihedral_style  charmm

# ----------------- Atom Definition Section -----------------

read_data "02_water_aa.data"
Reading data file ...
  orthogonal box = (0 0 0) to (12.41 12.41 12.41)
  reading atoms ...
  192 atoms
  scanning bonds ...
  scanning angles ...
  reading bonds ...
  128 bonds
  reading angles ...
  64 angles
Finding 1-2 1-3 1-4 neighbors ...
     2 = max # of 1-2 neighbors
     1 = max # of 1-3 neighbors
     1 = max # of 1-4 neighbors
     2 = max # of special neighbors

# ----------------- Settings Section -----------------

include "02_water_aa.in.settings"
     mass 1  15.9994
     mass 2   1.0079

     pair_style  lj/cut/tip4p/long 1 2 1 1 0.1546 12.
     pair_coeff  1 1 0.18519 3.1589
     pair_coeff  2 2 0.0 0.0
     kspace_style pppm/tip4p 0.0001
     bond_coeff  1  450.0 0.9572
     angle_coeff 1  55.0 104.52 0.0 0.0

# ----------------- Run Section -----------------

include "02_water_aa.in.run"
# Derived variables.
variable d       equal $p*$s        # thermo interval
variable d       equal 1000*$s
variable d       equal 1000*5
variable dcycle  equal $d            # dump interval (same as thermo)
variable dcycle  equal 5000
variable tcouple equal 2*100
variable pcouple equal 2*1000

# Create a random seed.
shell dd if=/dev/urandom of=/tmp/random_number count=2 bs=1
shell od -An --format=dI /tmp/random_number > /tmp/seed
variable s1 file /tmp/seed
variable s2 equal abs(v_s1)
Random Seed 56809
variable r1 equal random(10000,1000000,56809)

# Output.
thermo       $d
thermo       5000
thermo_style custom step etotal evdwl ecoul elong ebond ke pe temp press pxx pyy pzz vol density cpu
thermo_modify flush yes
dump 1 all dcd 5000 02_water_aa.dcd
dump_modify 1 unwrap yes

# 1. Equilibrate the sample.
timestep        2
velocity        all create 298.15 391624 dist gaussian
fix             1 all shake .0001 10 0 m 1.0079 a 1
       0 = # of size 2 clusters
       0 = # of size 3 clusters
       0 = # of size 4 clusters
      64 = # of frozen angles
  find clusters CPU = 0.000 seconds
fix             2 all nph iso 1. 1. 2000
variable r format r1 %.0f
fix             3 all langevin 298.15 298.15 200 $r
fix             3 all langevin 298.15 298.15 200 766172
run   50000
PPPM initialization ...
  extracting TIP4P info from pair style
  G vector (1/distance) = 0.24687989
  grid = 8 8 8
  stencil order = 5
  estimated absolute RMS force accuracy = 0.0082085047
  estimated relative force accuracy = 2.4719668e-05
  3d grid and FFT values/proc = 1815 128
Generated 1 of 1 mixed pair_coeff terms from geometric mixing rule
  update every 1 steps, delay 10 steps, check yes
Step         TotEng         E_vdwl         E_coul         E_long         E_bond         KinEng         PotEng          Temp          Press           Pxx            Pyy            Pzz           Volume        Density          CPU
0  -560.83428      131.19354      4634.9239     -5496.6989      0              169.74715     -730.58143      448.39882     -4156.7593     -2537.6138     -9419.709      -512.95508      1911.2405      1.0017348      0
Averages over the last 6 of 11 rows, steps 25000 to 50000:
TotEng E_vdwl E_coul E_long E_bond KinEng PotEng Temp Press Pxx Pyy Pzz Volume Density
-613.924 127.702 4642.65 -5497.21 0 112.934 -726.858 298.322 -221.084 281.516 -1093.58 148.811 1920.75 0.998162
Loop time of 116.992 on 4 procs for 50000 steps with 192 atoms

# ----------------- Run Section -----------------

# The lines above define the system you want to simulate.
# What you do next is up to you.
# Typically a user would minimize and equilibrate
# the system using commands similar to the following:
#  ----   examples   ----
#
#  -- minimize --
# minimize 1.0e-5 1.0e-7 1000 10000
# (Note: Some fixes, for example "shake", interfere with the minimize command,
#        You can use the "unfix" command to disable them before minimization.)
#  -- declare time step for normal MD --
# timestep 1.0
#  -- run at constant pressure (Nose-Hoover)--
# fix   fxnpt all npt temp 300.0 300.0 100.0 iso 1.0 1.0 1000.0 drag 1.0
#  -- ALTERNATELY, run at constant volume (Nose-Hoover) --
# fix   fxnvt all nvt temp 300.0 300.0 500.0 tchain 1
#  -- ALTERNATELY, run at constant volume using Langevin dynamics. --
#  -- (This is good for sparse CG polymers in implicit solvent.)   --
# fix fxLAN all langevin 300.0 300.0 5000 48279
# fix fxNVE all nve  #(<--needed by fix langevin)
#  -- Now, finally run the simulation --
# run   50000
#  ---- (end of examples) ----
